/*--------------------------------*- C++ -*----------------------------------*\
| =========                 |                                                 |
| \\      /  F ield         | OpenFOAM: The Open Source CFD Toolbox           |
|  \\    /   O peration     | Version:  2.4.0                                 |
|   \\  /    A nd           | Web:      www.OpenFOAM.org                      |
|    \\/     M anipulation  |                                                 |
\*---------------------------------------------------------------------------*/
FoamFile
{
    version     2.0;
    format      ascii;
    class       polyBoundaryMesh;
    location    "constant/polyMesh";
    object      boundary;
}
// * * * * * * * * * * * * * * * * * * * * * * * * * * * * * * * * * * * * * //

6
(
    bottom
    {
        type            wall;
        inGroups        1(wall);
        nFaces          100;
        startFace       6900;
    }
    top
    {
        type            wall;
        inGroups        1(wall);
        nFaces          100;
        startFace       7000;
    }
    left
    {
        type            cyclic;
        inGroups        1(cyclic);
        nFaces          250;
        startFace       7100;
        matchTolerance  0.0001;
        transform       unknown;
        neighbourPatch  right;
    }
    right
    {
        type            cyclic;
        inGroups        1(cyclic);
        nFaces          250;
        startFace       7350;
        matchTolerance  0.0001;
        transform       unknown;
        neighbourPatch  left;
    }
    front
    {
        type            cyclic;
        inGroups        1(cyclic);
        nFaces          250;
        startFace       7600;
        matchTolerance  0.0001;
        transform       unknown;
        neighbourPatch  back;
    }
    back
    {
        type            cyclic;
        inGroups        1(cyclic);
        nFaces          250;
        startFace       7850;
        matchTolerance  0.0001;
        transform       unknown;
        neighbourPatch  front;
    }
)

// ************************************************************************* //
