/*--------------------------------*- C++ -*----------------------------------*\
| =========                 |                                                 |
| \\      /  F ield         | OpenFOAM: The Open Source CFD Toolbox           |
|  \\    /   O peration     | Version:  2.4.0                                 |
|   \\  /    A nd           | Web:      www.OpenFOAM.org                      |
|    \\/     M anipulation  |                                                 |
\*---------------------------------------------------------------------------*/
FoamFile
{
    version     2.0;
    format      ascii;
    class       polyBoundaryMesh;
    location    "constant/polyMesh";
    object      boundary;
}
// * * * * * * * * * * * * * * * * * * * * * * * * * * * * * * * * * * * * * //

9
(
    bottom
    {
        type            wall;
        inGroups        1(wall);
        nFaces          20;
        startFace       1521;
    }
    top
    {
        type            wall;
        inGroups        1(wall);
        nFaces          30;
        startFace       1541;
    }
    left
    {
        type            cyclic;
        inGroups        1(cyclic);
        nFaces          0;
        startFace       1571;
        matchTolerance  0.0001;
        transform       unknown;
        neighbourPatch  right;
    }
    right
    {
        type            cyclic;
        inGroups        1(cyclic);
        nFaces          0;
        startFace       1571;
        matchTolerance  0.0001;
        transform       unknown;
        neighbourPatch  left;
    }
    front
    {
        type            cyclic;
        inGroups        1(cyclic);
        nFaces          51;
        startFace       1571;
        matchTolerance  0.0001;
        transform       unknown;
        neighbourPatch  back;
    }
    back
    {
        type            cyclic;
        inGroups        1(cyclic);
        nFaces          51;
        startFace       1622;
        matchTolerance  0.0001;
        transform       unknown;
        neighbourPatch  front;
    }
    procBoundary3to0throughright
    {
        type            processorCyclic;
        inGroups        1(processorCyclic);
        nFaces          250;
        startFace       1673;
        matchTolerance  0.0001;
        transform       unknown;
        myProcNo        3;
        neighbProcNo    0;
        referPatch      right;
    }
    procBoundary3to2
    {
        type            processor;
        inGroups        1(processor);
        nFaces          283;
        startFace       1923;
        matchTolerance  0.0001;
        transform       unknown;
        myProcNo        3;
        neighbProcNo    2;
    }
    procBoundary3to2throughfront
    {
        type            processorCyclic;
        inGroups        1(processorCyclic);
        nFaces          23;
        startFace       2206;
        matchTolerance  0.0001;
        transform       unknown;
        myProcNo        3;
        neighbProcNo    2;
        referPatch      front;
    }
)

// ************************************************************************* //
